162
Solvent molecules /media/460GB/Development/RISM-MOL-Tools/test/rism-mol-tools_2012_06_05/water.xyz for CD_in_water, treshold=2.000000
O          0       -3.5        7.5
H     -0.344       -4.2       8.13
H      0.804      -3.06        7.9
O        0.5        0.5          8
H     -0.349      0.761       8.46
H      0.982     -0.171       8.56
O        0.5        4.5        6.5
H    -0.0316       5.01       5.83
H      0.737       5.11       7.26
O        0.5       -3.5          2
H       1.14      -3.19       1.29
H     -0.275      -3.95       1.56
O        0.5       -3.5       -4.5
H     -0.284      -3.99      -4.88
H      0.945      -4.08      -3.81
O          1        4.5       -5.5
H       1.39       4.97      -6.29
H      0.291       5.08       -5.1
O          1       -5.5          6
H      0.594      -6.04       6.74
H        1.6      -6.09       5.46
O          2        3.5        0.5
H       2.47       4.33      0.787
H       1.15       3.41       1.02
O          2       -3.5         -2
H       1.22      -3.99      -2.38
H       2.45      -4.08      -1.31
O          3       -1.5        7.5
H       2.36     -0.954       8.04
H       3.78      -1.76       8.08
O        3.5        2.5       -6.5
H       4.35       2.24      -6.96
H       3.02       3.17      -7.06
O        3.5       -5.5        4.5
H       4.03      -6.01       5.17
H       3.26      -6.11       3.74
O        3.5         -5        2.5
H       2.72      -5.49       2.12
H       3.95      -5.58       3.19
O        3.5         -3       -7.5
H        4.3      -2.57      -7.92
H       3.14       -3.7      -8.12
O          4        0.5          7
H       3.66      -0.27       7.54
H        4.8      0.881       7.46
O        4.5        3.5        4.5
H        5.3       3.89       4.95
H       4.14       4.16       3.84
O        4.5          5       -1.5
H       5.36       5.49      -1.62
H       3.89       5.55     -0.924
O        4.5         -5        5.5
H          5      -4.95       6.37
H       4.52      -5.94       5.17
O        4.5       -4.5       -4.5
H       3.64      -4.99      -4.38
H       5.11      -5.05      -5.08
O        5.5          0         -6
H        6.3      0.391      -5.55
H       5.14      0.661      -6.66
O          6         -5         -2
H       5.59      -5.54      -1.26
H        6.6      -5.59      -2.54
O          6       -3.5         -5
H       5.44       -4.3       -5.2
H       6.82      -3.52      -5.57
O        6.5          2         -4
H        7.3       2.39      -3.55
H       6.14       2.66      -4.66
O        6.5        3.5         -2
H       7.36       3.28      -2.45
H       6.54       4.43      -1.65
O        6.5        4.5        2.5
H       7.36       4.99       2.38
H       5.89       5.05       3.08
O        7.5         -3        1.5
H       8.02      -3.44       2.24
H        8.1      -2.38      0.997
O        7.5         -2        4.5
H       7.03      -1.56       5.27
H       8.35      -1.51       4.32
O        7.5       -1.5       -3.5
H       6.98      -2.17      -4.04
H       8.26      -1.15      -4.05
O          8        0.5       -0.5
H        8.4     -0.198     0.0973
H       8.67      0.741      -1.21
O         -8        1.5          0
H      -8.72       2.06     -0.409
H      -7.68       1.95      0.835
O         -8       -3.5          1
H      -7.63      -4.02      0.231
H      -8.87      -3.91       1.28
O         -8       -0.5       -2.5
H      -7.47      -1.18         -2
H      -8.64     -0.966      -3.11
O       -7.5       -1.5         -4
H       -7.1     -0.716      -4.48
H      -8.42      -1.26       -3.7
O         -7        2.5       -3.5
H      -6.66        3.2      -4.13
H       -7.8       2.06       -3.9
O       -6.5       -0.5          5
H      -7.28     -0.992       4.62
H      -6.05      -1.08       5.69
O         -6          4        1.5
H      -6.64       3.69       2.21
H      -5.22       4.45       1.94
O       -5.5       -4.5       -0.5
H      -5.91      -5.04       0.24
H       -4.9      -5.09      -1.04
O       -5.5         -3          5
H      -5.04      -3.37       5.81
H      -6.18      -3.66       4.69
O         -5          4         -4
H       -5.5       3.95      -4.87
H      -5.02       4.94      -3.67
O       -4.5          1         -7
H      -4.03      0.263      -7.49
H      -5.35       1.21      -7.48
O       -4.5         -3         -7
H       -4.9       -3.7       -6.4
H      -5.17      -2.76      -7.71
O       -3.5        5.5         -2
H      -3.96       6.06      -2.69
H      -2.82       6.06      -1.53
O         -3        1.5        7.5
H      -3.43       0.94       8.21
H      -2.21       1.97        7.9
O         -3       -5.5        5.5
H      -3.27      -6.36       5.06
H       -3.7      -5.24       6.17
O         -3       -3.5       -1.5
H       -2.5      -3.45     -0.635
H      -2.98      -4.44      -1.83
O       -2.5       -4.5         -4
H      -1.79      -4.98      -3.48
H       -3.1      -5.17      -4.44
O       -1.5        1.5       -8.5
H       -1.1      0.802       -7.9
H     -0.833       1.74      -9.21
O       -1.5        5.5         -6
H     -0.861       5.98       -6.6
H      -2.04       6.17      -5.49
O       -1.5         -5          2
H     -0.697      -5.44        2.4
H      -1.86      -5.57       1.26
O       -1.5         -1         -8
H      -1.07     -0.282      -8.54
H      -2.29      -1.36       -8.5
O         -1          3          2
H     -0.136       2.78       1.55
H     -0.958       3.93       2.35
O         -1        3.5       -1.5
H       -1.1       4.39      -1.05
H      -0.47       2.89     -0.908
O       -0.5          0        0.5
H      0.303      0.425     0.0817
H     -0.857       -0.7     -0.118
O       -0.5       -0.5         -1
H     -0.933      -1.22     -0.456
H      0.287     -0.141     -0.498
